INFO:    squashfuse not found, will not be able to mount SIF or other squashfs files
INFO:    fuse2fs not found, will not be able to mount EXT3 filesystems
INFO:    gocryptfs not found, will not be able to use gocryptfs
INFO:    Converting SIF file to temporary sandbox...
/*---------------------------------------------------------------------------*\
| =========                 |                                                 |
| \\      /  F ield         | OpenFOAM: The Open Source CFD Toolbox           |
|  \\    /   O peration     | Version:  2406                                  |
|   \\  /    A nd           | Website:  www.openfoam.com                      |
|    \\/     M anipulation  |                                                 |
\*---------------------------------------------------------------------------*/
Build  : _be01ca78-20240625 OPENFOAM=2406 version=2406
Arch   : "LSB;label=32;scalar=64"
Exec   : setExprBoundaryFields
Date   : Nov 02 2025
Time   : 18:54:23
Host   : anh-MS-7E26
PID    : 116307
I/O    : uncollated
Case   : /home/anh/Documents/ml-cfd-lecture/exercises/2-3/cylinder2D
nProcs : 1
trapFpe: Floating point exception trapping enabled (FOAM_SIGFPE).
fileModificationChecking : Monitoring run-time modified files using timeStampMaster (fileModificationSkew 5, maxFileModificationPolls 20)
allowSystemOperations : Allowing user-supplied system call operations

// * * * * * * * * * * * * * * * * * * * * * * * * * * * * * * * * * * * * * //
Create time

Create mesh for time = 0


Time = 0
Processing field U
Set boundaryField/inlet/value
with expression
<<<<
 4*1.0*pos().y()*(0.41-pos().y())/(0.41*0.41)*vector(1,0,0) 
>>>>
Write "/home/anh/Documents/ml-cfd-lecture/exercises/2-3/cylinder2D/0/U"

End

INFO:    Cleaning up image...
